&MOM_input_nml
	output_directory = './',
	input_filename = 'n',
	restart_input_dir = './',
	restart_output_dir = 'RESTART/',
	parameter_filename =
		'@CMAKE_SOURCE_DIR@/config/MOM_common',
		'@CMAKE_CURRENT_SOURCE_DIR@/MOM_input',
		'MOM_override' /

&diag_manager_nml
/

&fms_nml
	domains_stack_size = 1600000,
	stack_size = 0 /

&ocean_solo_nml
	months = 0
	days = 160
	hours = 0
	minutes = 0
	seconds = 0
	date_init = 1,1,1,0,0,0
	calendar = 'julian' /
